testData/tamu2000/pfcases_100_zone16/Equ_tx2000_hr_5279_mod_v23_zone16_pslf.raw
0  100.000 
THIS IS A SYNTHETIC POWER SYSTEM MODEL THAT DOES NOT REPRESE
DATA RESEARCH PROJECT AND CONTAINS NO CEII.
1048,  2,  129.276,  1.943,  0.000,  0.000,  1,  1.00000,  -55.0718,  'MONAHANS',  18.000,  9
1049,  2,  86.579,  10.970,  0.000,  0.000,  1,  1.00000,  -47.9376,  'MONAHANS',  18.000,  9
1053,  2,  77.713,  -15.511,  0.000,  0.000,  1,  1.00842,  -68.5010,  'MONAHANS',  230.00,  9
1072,  3,  83.537,  -7.611,  0.000,  0.000,  1,  1.01000,  -67.5533,  'ODESSA 1',  18.000,  9
1073,  2,  54.911,  -3.844,  0.000,  0.000,  1,  1.01000,  -64.7882,  'ODESSA 1',  18.000,  9
1074,  2,  57.174,  -1.274,  0.000,  0.000,  1,  1.01000,  -65.1817,  'ODESSA 1',  18.000,  9
1075,  2,  72.955,  -3.866,  0.000,  0.000,  1,  1.01000,  -66.7391,  'ODESSA 1',  18.000,  9
1076,  2,  146.696,  -15.855,  0.000,  0.000,  1,  1.01000,  -69.8779,  'ODESSA 1',  18.000,  9
1077,  2,  58.736,  -1.943,  0.000,  0.000,  1,  1.01000,  -65.4312,  'ODESSA 1',  18.000,  9
1081,  2,  403.580,  -83.190,  0.000,  0.000,  1,  1.01435,  -71.8282,  'ODESSA 1',  230.00,  9
2001,  1,  0.000,  0.000,  0.000,  0.000,  2,  1.01433,  -78.0320,  'PARIS 3 ',  161.00,  11
2002,  1,  0.000,  0.000,  0.000,  0.000,  2,  1.02624,  -75.9097,  'SAVOY 0 ',  500.00,  11
2003,  1,  0.000,  0.000,  0.000,  0.000,  2,  1.02672,  -77.7150,  'SAVOY 1 ',  161.00,  11
2004,  2,  0.000,  0.000,  0.000,  0.000,  2,  1.02010,  -74.9613,  'SAVOY 2 ',  13.800,  11
2005,  2,  0.000,  0.000,  0.000,  0.000,  2,  1.02000,  -74.8000,  'SAVOY 3 ',  13.800,  11
2006,  2,  0.000,  0.000,  0.000,  0.000,  2,  1.02000,  -74.1812,  'SAVOY 4 ',  13.800,  11
2007,  1,  0.000,  0.000,  0.000,  0.000,  2,  1.01895,  -77.4272,  'HONEY GR',  161.00,  11
2009,  1,  -0.010,  -51.334,  0.000,  0.000,  2,  1.02999,  -79.3247,  'IOWA PAR',  161.00,  11
2013,  2,  8.308,  -3.670,  0.000,  0.000,  2,  1.03026,  -76.6178,  'PANHANDL',  18.000,  10
2015,  1,  0.000,  0.000,  0.000,  0.000,  2,  1.02509,  -82.3478,  'FORESTBU',  161.00,  11
2016,  1,  0.000,  0.000,  0.000,  0.000,  2,  1.02316,  -81.5548,  'SHERMAN ',  161.00,  11
2020,  1,  0.000,  0.000,  0.000,  0.000,  2,  1.02463,  -77.4414,  'WICHITA ',  161.00,  11
2021,  1,  0.000,  0.000,  0.000,  0.000,  2,  1.02775,  -75.0824,  'PARIS 2 ',  500.00,  11
2022,  1,  0.000,  0.000,  0.000,  0.000,  2,  1.02163,  -76.9016,  'PARIS 2 ',  161.00,  11
2023,  2,  0.000,  0.000,  0.000,  0.000,  2,  1.02775,  -75.0824,  'PARIS 2 ',  13.800,  11
2024,  2,  0.000,  0.000,  0.000,  0.000,  2,  1.02345,  -73.8017,  'PARIS 2 ',  13.800,  11
2025,  1,  0.000,  0.000,  0.000,  0.000,  2,  1.02209,  -77.2360,  'WICHITA ',  161.00,  11
2027,  1,  0.000,  0.000,  0.000,  0.000,  2,  1.01332,  -78.4977,  'DEPORT 0',  161.00,  11
2028,  1,  0.000,  0.000,  0.000,  0.000,  2,  1.02435,  -78.6575,  'WICHITA ',  161.00,  11
2030,  1,  0.000,  0.000,  0.000,  0.000,  2,  1.00493,  -80.3736,  'BONHAM 0',  161.00,  11
2032,  1,  0.000,  0.000,  0.000,  0.000,  2,  1.02096,  -76.9851,  'ARTHUR C',  161.00,  11
2033,  1,  0.000,  0.000,  0.000,  0.000,  2,  0.99595,  -82.2439,  'LEONARD ',  161.00,  11
2034,  1,  0.000,  0.000,  0.000,  0.000,  2,  1.02612,  -81.0796,  'GORDONVI',  161.00,  11
2036,  1,  0.000,  0.000,  0.000,  0.000,  2,  1.02438,  -77.6022,  'WICHITA ',  161.00,  11
2037,  1,  0.000,  0.000,  0.000,  0.000,  2,  1.02906,  -82.3625,  'LINDSAY ',  161.00,  11
2038,  1,  0.000,  0.000,  0.000,  0.000,  2,  1.02275,  -78.4743,  'ECTOR 0 ',  161.00,  11
2039,  1,  0.000,  0.000,  0.000,  0.000,  2,  1.01778,  -81.6283,  'SUNSET 0',  161.00,  11
2040,  1,  0.000,  0.000,  0.000,  0.000,  2,  1.02001,  -77.4835,  'CLARKSVI',  161.00,  11
2043,  1,  0.000,  0.000,  0.000,  0.000,  2,  1.02484,  -81.2930,  'SADLER 0',  161.00,  11
2044,  1,  0.000,  0.000,  0.000,  0.000,  2,  1.02723,  -80.8100,  'WHITESBO',  161.00,  11
2045,  1,  0.000,  0.000,  0.000,  0.000,  2,  1.02437,  -77.7103,  'SHEPPARD',  161.00,  11
2046,  1,  0.000,  0.000,  0.000,  0.000,  2,  1.02767,  -80.8149,  'POTTSBOR',  161.00,  11
2047,  1,  0.000,  0.000,  0.000,  0.000,  2,  1.02699,  -78.2544,  'BELLS 0 ',  161.00,  11
2049,  1,  45.064,  -1.237,  0.000,  0.000,  2,  1.02755,  -80.4950,  'ELECTRA ',  161.00,  10
2050,  1,  0.000,  0.000,  0.000,  0.000,  2,  0.99400,  -81.6532,  'PATTONVI',  161.00,  11
2051,  1,  0.000,  0.000,  0.000,  0.000,  2,  1.02175,  -80.5766,  'HENRIETT',  161.00,  11
2053,  1,  0.000,  0.000,  0.000,  0.000,  2,  1.01894,  -79.6063,  'BOWIE 0 ',  161.00,  11
2054,  1,  0.000,  0.000,  0.000,  0.000,  2,  1.02597,  -76.4040,  'WICHITA ',  500.00,  11
2055,  1,  0.000,  0.000,  0.000,  0.000,  2,  1.02541,  -76.9953,  'WICHITA ',  161.00,  11
2056,  2,  0.000,  0.000,  0.000,  0.000,  2,  1.02597,  -76.4040,  'WICHITA ',  18.000,  11
2057,  3,  0.000,  0.000,  0.000,  0.000,  2,  0.99000,  -74.0845,  'WICHITA ',  18.000,  11
2060,  1,  0.000,  0.000,  0.000,  0.000,  2,  0.99766,  -80.4902,  'ROXTON 0',  161.00,  11
2063,  1,  -0.001,  -38.498,  0.000,  0.000,  2,  1.03000,  -80.4037,  'DENISON ',  161.00,  11
2064,  1,  0.000,  0.000,  0.000,  0.000,  2,  1.00958,  -78.6246,  'SUMNER 0',  161.00,  11
2065,  1,  -0.002,  -62.154,  0.000,  0.000,  2,  1.03000,  -82.5720,  'GAINESVI',  161.00,  11
2067,  1,  0.000,  0.000,  0.000,  0.000,  2,  1.01960,  -77.3495,  'WICHITA ',  161.00,  11
2068,  1,  0.000,  0.000,  0.000,  0.000,  2,  1.01787,  -76.7853,  'WINDTHOR',  161.00,  11
2069,  1,  -0.002,  -45.586,  0.000,  0.000,  2,  1.03000,  -80.9376,  'HOWE 0  ',  161.00,  11
2070,  1,  0.000,  0.000,  0.000,  0.000,  2,  1.01861,  -76.5586,  'ARCHER 2',  161.00,  11
2071,  1,  -12.745,  21.600,  0.000,  0.000,  2,  1.00650,  -76.1365,  'ARCHER 2',  18.000,  11
2072,  1,  0.000,  0.000,  0.000,  0.000,  2,  1.02891,  -79.7438,  'COLLINSV',  161.00,  11
2077,  1,  0.000,  0.000,  0.000,  0.000,  2,  1.02809,  -82.0285,  'MUENSTER',  161.00,  11
2078,  1,  -9.560,  11.847,  0.000,  0.000,  2,  1.01996,  -81.6426,  'MUENSTER',  13.800,  11
2080,  1,  0.000,  0.000,  0.000,  0.000,  2,  1.02216,  -81.3222,  'NOCONA 0',  161.00,  11
2081,  1,  0.000,  0.000,  0.000,  0.000,  2,  1.01569,  -79.8336,  'DODD CIT',  161.00,  11
2082,  1,  0.000,  0.000,  0.000,  0.000,  2,  1.02471,  -78.1255,  'WICHITA ',  161.00,  11
2083,  2,  0.000,  0.000,  0.000,  0.000,  2,  1.02471,  -78.1255,  'WICHITA ',  20.000,  11
2084,  2,  0.000,  0.000,  0.000,  0.000,  2,  1.02471,  -78.1255,  'WICHITA ',  20.000,  11
2085,  2,  0.000,  0.000,  0.000,  0.000,  2,  1.02471,  -78.1255,  'WICHITA ',  20.000,  11
2086,  1,  0.000,  0.000,  0.000,  0.000,  2,  1.01990,  -81.5251,  'MONTAGUE',  161.00,  11
2088,  1,  0.000,  0.000,  0.000,  0.000,  2,  1.01773,  -76.6821,  'ARCHER 1',  161.00,  11
2089,  1,  -5.744,  9.730,  0.000,  0.000,  2,  1.00585,  -76.2694,  'ARCHER 1',  24.000,  11
2090,  1,  0.000,  0.000,  0.000,  0.000,  2,  1.01072,  -79.2185,  'ANNONA 0',  161.00,  11
2092,  1,  0.000,  0.000,  0.000,  0.000,  2,  1.02773,  -79.3610,  'DENISON ',  161.00,  11
2101,  1,  0.000,  0.000,  0.000,  0.000,  2,  1.02736,  -76.5527,  'SHERMAN ',  500.00,  11
2102,  1,  0.000,  0.000,  0.000,  0.000,  2,  1.02878,  -77.7517,  'SHERMAN ',  161.00,  11
2103,  2,  0.000,  0.000,  0.000,  0.000,  2,  1.02382,  -76.0019,  'SHERMAN ',  20.000,  11
2104,  2,  0.000,  0.000,  0.000,  0.000,  2,  1.02268,  -75.8308,  'SHERMAN ',  20.000,  11
2105,  2,  0.000,  0.000,  0.000,  0.000,  2,  1.02005,  -75.4072,  'SHERMAN ',  20.000,  11
2106,  1,  0.000,  0.000,  0.000,  0.000,  2,  1.00145,  -81.7965,  'WHITEWRI',  161.00,  11
2107,  1,  0.000,  0.000,  0.000,  0.000,  2,  1.02676,  -78.2661,  'SHERMAN ',  161.00,  11
2109,  1,  0.000,  0.000,  0.000,  0.000,  2,  1.02717,  -79.1452,  'BURKBURN',  161.00,  11
2110,  1,  -0.001,  -21.200,  0.000,  0.000,  2,  1.03000,  -82.1925,  'MUENSTER',  161.00,  11
2111,  1,  0.000,  0.000,  0.000,  0.000,  2,  1.03192,  -78.4913,  'ARCHER C',  161.00,  11
2112,  1,  0.000,  0.000,  0.000,  0.000,  2,  1.02354,  -79.2689,  'PETROLIA',  161.00,  11
2113,  1,  0.000,  0.000,  0.000,  0.000,  2,  1.02810,  -74.9415,  'PARIS 1 ',  500.00,  11
2114,  1,  0.000,  0.000,  0.000,  0.000,  2,  1.02629,  -75.8562,  'PARIS 1 ',  161.00,  11
2115,  2,  0.000,  0.000,  0.000,  0.000,  2,  1.02039,  -72.6838,  'PARIS 1 ',  13.800,  11
2116,  2,  0.000,  0.000,  0.000,  0.000,  2,  1.02416,  -73.7708,  'PARIS 1 ',  13.800,  11
2117,  2,  0.000,  0.000,  0.000,  0.000,  2,  1.01852,  -72.3273,  'PARIS 1 ',  13.800,  11
2118,  2,  0.000,  0.000,  0.000,  0.000,  2,  1.01753,  -72.0416,  'PARIS 1 ',  13.800,  11
2119,  2,  0.000,  0.000,  0.000,  0.000,  2,  1.02325,  -73.5151,  'PARIS 1 ',  13.800,  11
2120,  2,  0.000,  0.000,  0.000,  0.000,  2,  1.01808,  -72.1552,  'PARIS 1 ',  13.800,  11
2121,  1,  0.000,  0.000,  0.000,  0.000,  2,  1.01732,  -78.1051,  'BAGWELL ',  161.00,  11
2122,  1,  0.000,  0.000,  0.000,  0.000,  2,  1.01354,  -78.3828,  'TELEPHON',  161.00,  11
2124,  1,  0.000,  0.000,  0.000,  0.000,  2,  0.99686,  -82.6797,  'VAN ALST',  161.00,  11
2125,  1,  0.000,  0.000,  0.000,  0.000,  2,  1.02164,  -80.1812,  'TIOGA 0 ',  161.00,  11
2126,  1,  0.000,  0.000,  0.000,  0.000,  2,  1.02526,  -82.5070,  'VALLEY V',  161.00,  11
2127,  2,  67.027,  193.369,  0.000,  0.000,  2,  1.04000,  -77.1501,  'MIAMI 0 ',  500.00,  10
2129,  1,  0.000,  0.000,  0.000,  0.000,  2,  1.00404,  -81.6783,  'TRENTON ',  161.00,  11
2133,  1,  0.000,  0.000,  0.000,  0.000,  2,  1.02708,  -81.9089,  'SAINT JO',  161.00,  11
3045,  2,  93.597,  -13.364,  0.000,  0.000,  3,  1.04000,  -72.6625,  'SILVER 4',  13.800,  27
3106,  3,  26.411,  -9.447,  0.000,  0.000,  3,  1.00000,  -79.5629,  'BUCHANAN',  13.200,  28
4026,  2,  244.228,  -8.742,  0.000,  0.000,  4,  1.03000,  -74.5491,  'CHRISTIN',  13.800,  20
4030,  3,  235.853,  -6.694,  0.000,  0.000,  4,  1.01000,  -65.9836,  'FANNIN 2',  13.800,  21
4058,  2,  55.761,  6.170,  0.000,  0.000,  4,  1.03000,  -79.7279,  'GREGORY ',  13.800,  21
4059,  2,  65.493,  5.808,  0.000,  0.000,  4,  1.03000,  -80.1409,  'GREGORY ',  13.800,  21
4060,  2,  35.385,  7.242,  0.000,  0.000,  4,  1.03000,  -78.5540,  'GREGORY ',  13.800,  21
4061,  2,  57.112,  6.516,  0.000,  0.000,  4,  1.03000,  -79.2556,  'GREGORY ',  13.800,  21
4062,  2,  46.365,  5.073,  0.000,  0.000,  4,  1.03000,  -78.4782,  'GREGORY ',  13.800,  21
4063,  2,  56.148,  7.164,  0.000,  0.000,  4,  1.03000,  -79.1983,  'GREGORY ',  13.800,  21
4082,  2,  101.478,  7.045,  0.000,  0.000,  4,  1.04000,  -84.3717,  'CORPUS C',  13.800,  21
4083,  2,  111.770,  6.552,  0.000,  0.000,  4,  1.04000,  -84.7451,  'CORPUS C',  13.800,  21
4084,  2,  202.800,  1.043,  0.000,  0.000,  4,  1.04000,  -86.7262,  'CORPUS C',  13.800,  21
4085,  2,  237.656,  1.137,  0.000,  0.000,  4,  1.04000,  -86.1600,  'CORPUS C',  13.800,  21
4115,  2,  189.615,  -20.333,  0.000,  0.000,  4,  1.04000,  -93.1372,  'LAREDO 1',  13.800,  20
4116,  2,  180.252,  -20.948,  0.000,  0.000,  4,  1.04000,  -93.0836,  'LAREDO 1',  13.800,  20
4160,  2,  204.730,  19.044,  0.000,  0.000,  4,  1.03000,  -83.4655,  'CORPUS C',  13.800,  21
4161,  2,  82.223,  14.063,  0.000,  0.000,  4,  1.03000,  -81.2692,  'CORPUS C',  13.800,  21
4162,  2,  83.261,  12.432,  0.000,  0.000,  4,  1.03000,  -81.3162,  'CORPUS C',  13.800,  21
4192,  2,  1581.885,  -68.634,  0.000,  0.000,  4,  1.02000,  -96.2474,  'BROWNSVI',  230.00,  19
5003,  1,  0.000,  0.000,  0.000,  0.000,  5,  1.02516,  -80.7247,  'GARLAND ',  161.00,  16
5004,  1,  0.000,  0.000,  0.000,  0.000,  5,  0.96619,  -85.3939,  'KERENS 0',  161.00,  14
5006,  1,  0.000,  0.000,  0.000,  0.000,  5,  1.02960,  -80.4374,  'DALLAS 2',  161.00,  16
5007,  1,  0.000,  0.000,  0.000,  0.000,  5,  1.02775,  -79.9145,  'DENTON 4',  161.00,  17
5009,  1,  0.000,  0.000,  0.000,  0.000,  5,  1.02775,  -81.3708,  'DALLAS 2',  161.00,  16
5010,  1,  0.000,  0.000,  0.000,  0.000,  5,  1.02907,  -80.5229,  'PLANO 2 ',  161.00,  16
5011,  1,  57.709,  7.522,  0.000,  0.000,  5,  0.96285,  -83.3113,  'THORNTON',  161.00,  13
5012,  1,  0.000,  0.000,  0.000,  0.000,  5,  1.02552,  -80.3096,  'DENTON 5',  161.00,  17
5014,  1,  0.000,  0.000,  0.000,  0.000,  5,  1.02050,  -82.2559,  'DECATUR ',  161.00,  17
5015,  1,  0.000,  0.000,  0.000,  0.000,  5,  1.03168,  -77.5779,  'KELLER 2',  500.00,  17
5016,  1,  0.000,  0.000,  0.000,  0.000,  5,  1.03002,  -79.5758,  'KELLER 2',  161.00,  17
5017,  1,  0.000,  0.000,  0.000,  0.000,  5,  1.01455,  -82.0361,  'PONDER 0',  161.00,  17
5021,  1,  0.000,  0.000,  0.000,  0.000,  5,  1.02994,  -77.8454,  'ALEDO 1 ',  500.00,  17
5022,  1,  0.000,  0.000,  0.000,  0.000,  5,  1.02765,  -79.9297,  'ALEDO 1 ',  161.00,  17
5023,  2,  0.000,  0.000,  0.000,  0.000,  5,  1.02994,  -77.8454,  'ALEDO 1 ',  13.800,  17
5025,  1,  31.126,  5.259,  0.000,  0.000,  5,  1.02346,  -78.9425,  'CLEBURNE',  161.00,  18
5026,  1,  0.000,  0.000,  0.000,  0.000,  5,  1.02351,  -80.9859,  'FORT WOR',  161.00,  17
5027,  1,  0.000,  0.000,  0.000,  0.000,  5,  1.02020,  -82.1604,  'FORT WOR',  161.00,  17
5028,  1,  0.000,  0.000,  0.000,  0.000,  5,  1.02764,  -80.4451,  'FORT WOR',  161.00,  17
5030,  1,  100.105,  22.231,  0.000,  0.000,  5,  1.01634,  -83.2864,  'SPRINGTO',  161.00,  12
5031,  1,  0.000,  0.000,  0.000,  0.000,  5,  1.01928,  -81.0290,  'PRINCETO',  161.00,  16
5032,  1,  0.000,  0.000,  0.000,  0.000,  5,  1.02282,  -80.6420,  'DALLAS 2',  161.00,  16
5033,  1,  0.000,  0.000,  0.000,  0.000,  5,  1.02685,  -77.2319,  'DALLAS 1',  500.00,  16
5034,  1,  0.000,  0.000,  0.000,  0.000,  5,  1.02467,  -78.7743,  'DALLAS 1',  161.00,  16
5035,  2,  0.000,  0.000,  0.000,  0.000,  5,  1.02685,  -77.2319,  'DALLAS 1',  13.200,  16
5036,  2,  0.000,  0.000,  0.000,  0.000,  5,  1.02685,  -77.2319,  'DALLAS 1',  13.200,  16
5037,  2,  0.000,  0.000,  0.000,  0.000,  5,  1.02269,  -75.4688,  'DALLAS 1',  13.200,  16
5038,  2,  0.000,  0.000,  0.000,  0.000,  5,  1.02247,  -75.4123,  'DALLAS 1',  13.200,  16
5039,  2,  0.000,  0.000,  0.000,  0.000,  5,  1.02512,  -76.4333,  'DALLAS 1',  13.200,  16
5040,  2,  0.000,  0.000,  0.000,  0.000,  5,  1.02126,  -74.8440,  'DALLAS 1',  13.200,  16
5041,  2,  0.000,  0.000,  0.000,  0.000,  5,  1.02315,  -75.5756,  'DALLAS 1',  13.200,  16
5042,  2,  0.000,  0.000,  0.000,  0.000,  5,  1.02209,  -75.2812,  'DALLAS 1',  13.200,  16
5043,  1,  0.000,  0.000,  0.000,  0.000,  5,  1.01795,  -81.4833,  'ROYSE CI',  161.00,  16
5044,  1,  0.000,  0.000,  0.000,  0.000,  5,  1.01969,  -81.0341,  'BOYD 0  ',  161.00,  17
5047,  1,  0.000,  0.000,  0.000,  0.000,  5,  1.02600,  -76.3164,  'MANSFIEL',  500.00,  17
5048,  1,  0.000,  0.000,  0.000,  0.000,  5,  1.02583,  -78.6913,  'MANSFIEL',  161.00,  17
5049,  1,  0.000,  0.000,  0.000,  0.000,  5,  1.03176,  -76.6715,  'GREENVIL',  500.00,  16
5050,  1,  0.000,  0.000,  0.000,  0.000,  5,  1.02336,  -80.1015,  'GREENVIL',  161.00,  16
5051,  2,  0.000,  0.000,  0.000,  0.000,  5,  1.03176,  -76.6715,  'GREENVIL',  22.000,  16
5052,  1,  0.000,  0.000,  0.000,  0.000,  5,  1.02941,  -78.8761,  'GREENVIL',  115.00,  16
5053,  1,  0.000,  0.000,  0.000,  0.000,  5,  1.02847,  -79.9586,  'PLANO 4 ',  161.00,  16
5054,  1,  0.000,  0.000,  0.000,  0.000,  5,  0.94321,  -86.0462,  'GROESBEC',  161.00,  14
5057,  2,  22.278,  -4.998,  0.000,  0.000,  5,  1.02880,  -74.0617,  'GRAHAM 2',  13.800,  12
5058,  2,  18.647,  -2.753,  0.000,  0.000,  5,  1.02642,  -73.3100,  'GRAHAM 3',  13.800,  12
5059,  1,  0.000,  0.000,  0.000,  0.000,  5,  1.00901,  -81.4028,  'MABANK 2',  161.00,  14
5060,  1,  0.000,  0.000,  0.000,  0.000,  5,  1.01607,  -82.3904,  'MABANK 2',  115.00,  14
5061,  1,  -0.001,  -22.970,  0.000,  0.000,  5,  1.03000,  -84.8183,  'MABANK 2',  115.00,  14
5062,  1,  0.000,  0.000,  0.000,  0.000,  5,  1.01292,  -87.0725,  'MABANK 2',  115.00,  14
5063,  1,  0.000,  0.000,  0.000,  0.000,  5,  1.03134,  -77.3054,  'ARLINGTO',  500.00,  17
5064,  1,  0.000,  0.000,  0.000,  0.000,  5,  1.02947,  -79.3695,  'ARLINGTO',  161.00,  17
5065,  2,  0.000,  0.000,  0.000,  0.000,  5,  1.03134,  -77.3054,  'ARLINGTO',  13.800,  17
5066,  2,  0.000,  0.000,  0.000,  0.000,  5,  1.03134,  -77.3054,  'ARLINGTO',  13.800,  17
5067,  2,  0.000,  0.000,  0.000,  0.000,  5,  1.03000,  -75.1169,  'ARLINGTO',  13.800,  17
5068,  2,  0.000,  0.000,  0.000,  0.000,  5,  1.03000,  -75.0066,  'ARLINGTO',  13.800,  17
5069,  2,  0.000,  0.000,  0.000,  0.000,  5,  1.03000,  -74.8599,  'ARLINGTO',  13.800,  17
5070,  1,  0.000,  0.000,  0.000,  0.000,  5,  1.02222,  -81.0615,  'DALLAS 4',  161.00,  17
5072,  1,  0.000,  0.000,  0.000,  0.000,  5,  1.02962,  -80.1717,  'DALLAS 1',  161.00,  16
5074,  1,  0.000,  0.000,  0.000,  0.000,  5,  1.02003,  -81.3326,  'PROSPER ',  161.00,  16
5076,  1,  0.000,  0.000,  0.000,  0.000,  5,  1.02011,  -82.6408,  'TERRELL ',  161.00,  16
5077,  1,  -0.002,  -30.778,  0.000,  0.000,  5,  1.03000,  -83.5178,  'TERRELL ',  115.00,  16
5078,  1,  0.000,  0.000,  0.000,  0.000,  5,  1.02754,  -79.6970,  'AUBREY 0',  161.00,  17
5082,  1,  0.000,  0.000,  0.000,  0.000,  5,  1.02727,  -80.9850,  'ARLINGTO',  161.00,  17
5083,  1,  0.000,  0.000,  0.000,  0.000,  5,  1.03263,  -77.8086,  'MCKINNEY',  500.00,  16
5084,  1,  0.000,  0.000,  0.000,  0.000,  5,  1.02970,  -79.3990,  'MCKINNEY',  161.00,  16
5085,  1,  0.000,  0.000,  0.000,  0.000,  5,  1.01592,  -81.3586,  'DALLAS 3',  161.00,  17
5086,  1,  0.000,  0.000,  0.000,  0.000,  5,  1.02496,  -80.7890,  'ARLINGTO',  161.00,  17
5087,  1,  0.000,  0.000,  0.000,  0.000,  5,  0.98948,  -83.0308,  'MILFORD ',  161.00,  14
5090,  1,  -0.041,  -136.871,  0.000,  0.000,  5,  1.03000,  -81.1098,  'DALLAS 1',  161.00,  16
5091,  1,  0.000,  0.000,  0.000,  0.000,  5,  0.96636,  -85.2806,  'FROST 0 ',  161.00,  14
5092,  1,  0.000,  0.000,  0.000,  0.000,  5,  1.02301,  -80.6732,  'GRANDVIE',  161.00,  14
5093,  1,  -0.093,  -169.999,  0.000,  0.000,  5,  1.03000,  -82.5279,  'HASLET 0',  161.00,  17
5094,  1,  0.000,  0.000,  0.000,  0.000,  5,  1.01731,  -78.7031,  'BARDWELL',  161.00,  14
5095,  1,  0.000,  0.000,  0.000,  0.000,  5,  1.02660,  -80.6448,  'LAKE DAL',  161.00,  17
5096,  1,  0.000,  0.000,  0.000,  0.000,  5,  1.02867,  -80.1840,  'PLANO 1 ',  161.00,  16
5097,  1,  0.000,  0.000,  0.000,  0.000,  5,  1.02761,  -80.1536,  'EULESS 2',  161.00,  17
5098,  1,  -0.023,  -104.452,  0.000,  0.000,  5,  1.03000,  -81.8457,  'FORT WOR',  161.00,  17
5099,  1,  -0.004,  -52.888,  0.000,  0.000,  5,  1.03000,  -81.5941,  'FLOWER M',  161.00,  17
5100,  1,  0.000,  0.000,  0.000,  0.000,  5,  1.02327,  -80.5599,  'DALLAS 1',  161.00,  16
5102,  1,  0.000,  0.000,  0.000,  0.000,  5,  1.03134,  -78.2304,  'RICHARDS',  500.00,  16
...
 0 /End of Bus data, Begin Generator data
1048,  '1',  234.140,  7.744,  165.530,  -36.100,  1.00000,  0,  390.240,  0.00000,  0.10170,  0.00000,  0.00000,  1.00000,  1,  100.0,  325.200,  97.560
1049,  '1',  234.140,  28.180,  165.530,  -36.100,  1.00000,  0,  390.240,  0.00000,  0.13490,  0.00000,  0.00000,  1.00000,  1,  100.0,  325.200,  97.560
1053,  '1',  103.700,  -19.850,  91.010,  -19.850,  1.00000,  0,  214.560,  0.00000,  0.16870,  0.00000,  0.00000,  1.00000,  1,  100.0,  178.800,  53.640
1072,  '1',  112.560,  -8.997,  97.800,  -21.330,  1.01000,  0,  230.560,  0.00000,  0.30820,  0.00000,  0.00000,  1.00000,  1,  100.0,  192.130,  57.640
1073,  '1',  111.440,  -7.976,  97.800,  -21.330,  1.01000,  0,  230.560,  0.00000,  0.19480,  0.00000,  0.00000,  1.00000,  1,  100.0,  192.130,  57.640
1074,  '1',  111.440,  -2.624,  97.800,  -21.330,  1.01000,  0,  230.560,  0.00000,  0.20960,  0.00000,  0.00000,  1.00000,  1,  100.0,  192.130,  57.640
1075,  '1',  111.440,  -4.432,  97.800,  -21.330,  1.01000,  0,  230.560,  0.00000,  0.12370,  0.00000,  0.00000,  1.00000,  1,  100.0,  192.130,  57.640
1076,  '1',  111.440,  -12.946,  97.800,  -21.330,  1.01000,  0,  230.560,  0.00000,  0.10660,  0.00000,  0.00000,  1.00000,  1,  100.0,  192.130,  57.640
1077,  '1',  111.440,  -3.817,  97.800,  -21.330,  1.01000,  0,  230.560,  0.00000,  0.15380,  0.00000,  0.00000,  1.00000,  1,  100.0,  192.130,  57.640
1081,  '1',  166.170,  -31.800,  145.830,  -31.800,  1.01000,  0,  343.800,  0.00000,  0.14960,  0.00000,  0.00000,  1.00000,  1,  100.0,  286.500,  85.950
2004,  '1',  117.540,  -43.490,  199.430,  -43.490,  1.02000,  0,  470.160,  0.00000,  0.10640,  0.00000,  0.00000,  1.00000,  1,  100.0,  391.800,  117.540
2005,  '1',  117.540,  -38.231,  199.430,  -43.490,  1.02000,  0,  470.160,  0.00000,  0.22750,  0.00000,  0.00000,  1.00000,  1,  100.0,  391.800,  117.540
2006,  '1',  117.540,  -23.546,  199.430,  -43.490,  1.02000,  0,  470.160,  0.00000,  0.20040,  0.00000,  0.00000,  1.00000,  1,  100.0,  391.800,  117.540
2013,  '1',  31.778,  -28.890,  42.730,  -28.890,  1.00000,  0,  240.720,  0.00000,  1.00000,  0.00000,  0.00000,  1.00000,  1,  100.0,  200.600,  60.180
2023,  '1',  0.000,  15.439,  42.420,  -9.250,  1.02000,  0,  100.000,  0.00000,  0.29440,  0.00000,  0.00000,  1.00000,  0,  100.0,  83.330,  25.000
2024,  '1',  96.670,  -18.500,  84.830,  -18.500,  1.02000,  0,  200.000,  0.00000,  0.15080,  0.00000,  0.00000,  1.00000,  1,  100.0,  166.670,  50.000
2056,  '1',  0.000,  0.000,  2.800,  -0.730,  0.99000,  0,  7.200,  0.00000,  0.24920,  0.00000,  0.00000,  1.00000,  0,  100.0,  6.000,  1.800
2057,  '1',  306.090,  -269.086,  335.520,  -87.840,  0.99000,  0,  864.000,  0.00000,  0.17700,  0.00000,  0.00000,  1.00000,  1,  100.0,  720.000,  216.000
2083,  '1',  0.000,  10.080,  10.180,  -2.220,  1.02000,  0,  24.000,  0.00000,  0.16410,  0.00000,  0.00000,  1.00000,  0,  100.0,  20.000,  6.000
2084,  '1',  0.000,  0.000,  10.180,  -2.220,  1.02000,  0,  24.000,  0.00000,  0.23120,  0.00000,  0.00000,  1.00000,  0,  100.0,  20.000,  6.000
2085,  '1',  0.000,  0.000,  20.360,  -4.440,  1.02000,  0,  48.000,  0.00000,  0.22690,  0.00000,  0.00000,  1.00000,  0,  100.0,  40.000,  12.000
2103,  '1',  80.320,  -29.720,  136.280,  -29.720,  1.00000,  0,  321.280,  0.00000,  0.33430,  0.00000,  0.00000,  1.00000,  1,  100.0,  267.730,  80.320
2104,  '1',  80.320,  -29.720,  136.280,  -29.720,  1.00000,  0,  321.280,  0.00000,  0.31470,  0.00000,  0.00000,  1.00000,  1,  100.0,  267.730,  80.320
2105,  '1',  80.320,  -29.720,  136.280,  -29.720,  1.00000,  0,  321.280,  0.00000,  0.14160,  0.00000,  0.00000,  1.00000,  1,  100.0,  267.730,  80.320
2115,  '1',  107.130,  -20.500,  94.020,  -20.500,  1.00000,  0,  221.660,  0.00000,  0.14250,  0.00000,  0.00000,  1.00000,  1,  100.0,  184.720,  55.410
2116,  '1',  107.130,  -20.500,  94.020,  -20.500,  1.00000,  0,  221.660,  0.00000,  0.18690,  0.00000,  0.00000,  1.00000,  1,  100.0,  184.720,  55.410
2117,  '1',  107.130,  -20.500,  94.020,  -20.500,  1.00000,  0,  221.660,  0.00000,  0.32540,  0.00000,  0.00000,  1.00000,  1,  100.0,  184.720,  55.410
2118,  '1',  107.130,  -20.500,  94.020,  -20.500,  1.00000,  0,  221.660,  0.00000,  0.10610,  0.00000,  0.00000,  1.00000,  1,  100.0,  184.720,  55.410
2119,  '1',  107.130,  -20.500,  94.020,  -20.500,  1.00000,  0,  221.660,  0.00000,  0.13600,  0.00000,  0.00000,  1.00000,  1,  100.0,  184.720,  55.410
2120,  '1',  107.130,  -20.500,  94.020,  -20.500,  1.01000,  0,  221.660,  0.00000,  0.20680,  0.00000,  0.00000,  1.00000,  1,  100.0,  184.720,  55.410
2127,  '1',  42.797,  -19.523,  61.470,  -41.560,  1.04000,  0,  346.320,  0.00000,  1.00000,  0.00000,  0.00000,  1.00000,  1,  100.0,  288.600,  86.580
3045,  '1',  134.100,  -0.909,  227.520,  -49.620,  1.04000,  0,  536.400,  0.00000,  0.14470,  0.00000,  0.00000,  1.00000,  1,  100.0,  447.000,  134.100
3106,  '1',  2.211,  -12.213,  62.477,  -2.690,  1.00000,  0,  65.880,  0.00000,  0.29220,  0.00000,  0.00000,  1.00000,  1,  100.0,  162.800,  0.000
4026,  '1',  123.000,  21.177,  191.060,  -50.020,  1.03000,  0,  492.000,  0.00000,  0.32770,  0.00000,  0.00000,  1.00000,  1,  100.0,  410.000,  123.000
4030,  '1',  124.866,  12.546,  290.040,  -75.930,  1.01000,  0,  746.880,  0.00000,  0.27970,  0.00000,  0.00000,  1.00000,  1,  100.0,  622.400,  186.720
4058,  '1',  83.520,  12.437,  73.300,  -15.980,  1.03000,  0,  172.800,  0.00000,  0.13700,  0.00000,  0.00000,  1.00000,  1,  100.0,  144.000,  43.200
4059,  '1',  83.520,  13.014,  73.300,  -15.980,  1.03000,  0,  172.800,  0.00000,  0.15140,  0.00000,  0.00000,  1.00000,  1,  100.0,  144.000,  43.200
4060,  '1',  83.520,  9.298,  73.300,  -15.980,  1.03000,  0,  172.800,  0.00000,  0.13940,  0.00000,  0.00000,  1.00000,  1,  100.0,  144.000,  43.200
4061,  '1',  99.950,  12.790,  87.720,  -19.130,  1.03000,  0,  206.800,  0.00000,  0.21560,  0.00000,  0.00000,  1.00000,  1,  100.0,  172.330,  51.700
4062,  '1',  99.950,  9.513,  87.720,  -19.130,  1.03000,  0,  206.800,  0.00000,  0.25930,  0.00000,  0.00000,  1.00000,  1,  100.0,  172.330,  51.700
4063,  '1',  99.950,  13.892,  87.720,  -19.130,  1.03000,  0,  206.800,  0.00000,  0.14410,  0.00000,  0.00000,  1.00000,  1,  100.0,  172.330,  51.700
4082,  '1',  175.250,  22.288,  123.890,  -27.020,  1.04000,  0,  292.080,  0.00000,  0.13810,  0.00000,  0.00000,  1.00000,  1,  100.0,  243.400,  73.020
4083,  '1',  175.250,  23.384,  123.890,  -27.020,  1.04000,  0,  292.080,  0.00000,  0.15700,  0.00000,  0.00000,  1.00000,  1,  100.0,  243.400,  73.020
4084,  '1',  175.250,  39.298,  123.890,  -27.020,  1.04000,  0,  292.080,  0.00000,  0.19110,  0.00000,  0.00000,  1.00000,  1,  100.0,  243.400,  73.020
4085,  '1',  253.440,  44.941,  179.170,  -39.070,  1.04000,  0,  422.400,  0.00000,  0.31920,  0.00000,  0.00000,  1.00000,  1,  100.0,  352.000,  105.600
4115,  '1',  39.540,  22.347,  67.090,  -14.630,  1.04000,  0,  158.160,  0.00000,  0.11310,  0.00000,  0.00000,  1.00000,  1,  100.0,  131.800,  39.540
4116,  '1',  39.540,  20.853,  67.090,  -14.630,  1.04000,  0,  158.160,  0.00000,  0.15150,  0.00000,  0.00000,  1.00000,  1,  100.0,  131.800,  39.540
4160,  '1',  114.710,  36.038,  100.660,  -21.950,  1.03000,  0,  237.320,  0.00000,  0.18820,  0.00000,  0.00000,  1.00000,  1,  100.0,  197.770,  59.330
4161,  '1',  114.710,  17.135,  100.660,  -21.950,  1.03000,  0,  237.320,  0.00000,  0.12390,  0.00000,  0.00000,  1.00000,  1,  100.0,  197.770,  59.330
4162,  '1',  114.710,  14.872,  100.660,  -21.950,  1.03000,  0,  237.320,  0.00000,  0.17220,  0.00000,  0.00000,  1.00000,  1,  100.0,  197.770,  59.330
4192,  '1',  896.490,  44.244,  688.320,  -150.120,  1.02000,  0,  1622.76,  0.00000,  0.14340,  0.00000,  0.00000,  1.00000,  1,  100.0,  1352.31,  405.690
5023,  '1',  0.000,  0.000,  2.440,  -0.530,  1.04000,  0,  5.760,  0.00000,  0.15290,  0.00000,  0.00000,  1.00000,  0,  100.0,  4.800,  1.440
5035,  '1',  0.000,  0.000,  2.140,  -0.470,  1.02000,  0,  5.040,  0.00000,  0.14180,  0.00000,  0.00000,  1.00000,  0,  100.0,  4.200,  1.260
5036,  '1',  0.000,  3.260,  3.260,  -0.710,  1.02000,  0,  7.680,  0.00000,  0.14370,  0.00000,  0.00000,  1.00000,  0,  100.0,  6.400,  1.920
5037,  '1',  265.280,  -34.240,  157.010,  -34.240,  1.02000,  0,  370.160,  0.00000,  0.29910,  0.00000,  0.00000,  1.00000,  1,  100.0,  308.470,  92.540
5038,  '1',  265.280,  -34.240,  157.010,  -34.240,  1.02000,  0,  370.160,  0.00000,  0.12330,  0.00000,  0.00000,  1.00000,  1,  100.0,  308.470,  92.540
5039,  '1',  265.280,  -34.240,  157.010,  -34.240,  1.02000,  0,  370.160,  0.00000,  0.21470,  0.00000,  0.00000,  1.00000,  1,  100.0,  308.470,  92.540
5040,  '1',  265.280,  -34.240,  157.010,  -34.240,  1.02000,  0,  370.160,  0.00000,  0.19240,  0.00000,  0.00000,  1.00000,  1,  100.0,  308.470,  92.540
5041,  '1',  265.280,  -34.240,  157.010,  -34.240,  1.02000,  0,  370.160,  0.00000,  0.11590,  0.00000,  0.00000,  1.00000,  1,  100.0,  308.470,  92.540
5042,  '1',  265.280,  -34.240,  157.010,  -34.240,  1.02000,  0,  370.160,  0.00000,  0.19130,  0.00000,  0.00000,  1.00000,  1,  100.0,  308.470,  92.540
5051,  '1',  0.000,  43.110,  43.110,  -9.400,  1.02000,  0,  101.640,  0.00000,  0.12480,  0.00000,  0.00000,  1.00000,  0,  100.0,  84.700,  25.410
5057,  '1',  228.450,  -35.230,  161.530,  -35.230,  1.00000,  0,  380.820,  0.00000,  0.19130,  0.00000,  0.00000,  1.00000,  1,  100.0,  317.350,  95.200
5058,  '1',  228.490,  -35.230,  161.530,  -35.230,  1.00000,  0,  380.820,  0.00000,  0.29820,  0.00000,  0.00000,  1.00000,  1,  100.0,  317.350,  95.200
5065,  '1',  0.000,  5.400,  5.400,  -1.180,  1.03000,  0,  12.720,  0.00000,  0.13710,  0.00000,  0.00000,  1.00000,  0,  100.0,  10.600,  3.180
5066,  '1',  0.000,  0.920,  0.920,  -0.200,  1.03000,  0,  2.160,  0.00000,  0.13100,  0.00000,  0.00000,  1.00000,  0,  100.0,  1.800,  0.540
5067,  '1',  376.910,  -9.519,  223.080,  -48.650,  1.03000,  0,  525.920,  0.00000,  0.32610,  0.00000,  0.00000,  1.00000,  1,  100.0,  438.270,  131.480
5068,  '1',  376.910,  -10.358,  223.080,  -48.650,  1.03000,  0,  525.920,  0.00000,  0.11690,  0.00000,  0.00000,  1.00000,  1,  100.0,  438.270,  131.480
5069,  '1',  376.910,  -10.055,  223.080,  -48.650,  1.03000,  0,  525.920,  0.00000,  0.10560,  0.00000,  0.00000,  1.00000,  1,  100.0,  438.270,  131.480
5106,  '1',  0.000,  0.000,  5.030,  -1.320,  1.04000,  0,  12.960,  0.00000,  0.31910,  0.00000,  0.00000,  1.00000,  0,  100.0,  10.800,  3.240
5107,  '1',  0.000,  0.000,  2.660,  -0.700,  1.04000,  0,  6.840,  0.00000,  0.27550,  0.00000,  0.00000,  1.00000,  0,  100.0,  5.700,  1.710
5166,  '1',  73.370,  19.157,  64.390,  -14.040,  1.04000,  0,  151.800,  0.00000,  0.13910,  0.00000,  0.00000,  1.00000,  1,  100.0,  126.500,  37.950
5167,  '1',  0.000,  0.810,  0.810,  -0.180,  1.04000,  0,  1.920,  0.00000,  0.10670,  0.00000,  0.00000,  1.00000,  0,  100.0,  1.600,  0.480
5206,  '1',  179.040,  -27.600,  126.570,  -27.600,  1.01000,  0,  298.400,  0.00000,  0.11980,  0.00000,  0.00000,  1.00000,  1,  100.0,  248.670,  74.600
5207,  '1',  179.040,  -27.600,  126.570,  -27.600,  1.01000,  0,  298.400,  0.00000,  0.18090,  0.00000,  0.00000,  1.00000,  1,  100.0,  248.670,  74.600
5208,  '1',  179.040,  -27.600,  126.570,  -27.600,  1.01000,  0,  298.400,  0.00000,  0.10560,  0.00000,  0.00000,  1.00000,  1,  100.0,  248.670,  74.600
5262,  '1',  1215.000,  -99.630,  447.120,  -99.630,  1.01000,  0,  1458.00,  0.00000,  0.26310,  0.00000,  0.00000,  1.00000,  1,  100.0,  1215.00,  364.500
5263,  '1',  1215.000,  -99.630,  447.120,  -99.630,  1.01000,  0,  1458.00,  0.00000,  0.16260,  0.00000,  0.00000,  1.00000,  1,  100.0,  1215.00,  364.500
5281,  '1',  80.320,  -29.720,  136.280,  -29.720,  1.00000,  0,  321.280,  0.00000,  0.10660,  0.00000,  0.00000,  1.00000,  1,  100.0,  267.730,  80.320
5282,  '1',  80.320,  -29.720,  136.280,  -29.720,  1.00000,  0,  321.280,  0.00000,  0.23940,  0.00000,  0.00000,  1.00000,  1,  100.0,  267.730,  80.320
5283,  '1',  80.320,  -29.720,  136.280,  -29.720,  1.00000,  0,  321.280,  0.00000,  0.10650,  0.00000,  0.00000,  1.00000,  1,  100.0,  267.730,  80.320
5297,  '1',  0.000,  0.000,  1.630,  -0.360,  1.04000,  0,  3.840,  0.00000,  0.19100,  0.00000,  0.00000,  1.00000,  0,  100.0,  3.200,  0.960
5298,  '1',  34.500,  58.530,  58.530,  -12.760,  1.04000,  0,  138.000,  0.00000,  0.13260,  0.00000,  0.00000,  1.00000,  1,  100.0,  115.000,  34.500
5299,  '1',  34.500,  30.396,  58.530,  -12.760,  1.04000,  0,  138.000,  0.00000,  0.32280,  0.00000,  0.00000,  1.00000,  1,  100.0,  115.000,  34.500
5300,  '1',  34.500,  36.677,  58.530,  -12.760,  1.04000,  0,  138.000,  0.00000,  0.21910,  0.00000,  0.00000,  1.00000,  1,  100.0,  115.000,  34.500
5301,  '1',  0.000,  42.090,  42.090,  -9.180,  1.04000,  0,  99.240,  0.00000,  0.19640,  0.00000,  0.00000,  1.00000,  0,  100.0,  82.700,  24.810
5302,  '1',  268.980,  40.160,  236.050,  -51.480,  1.04000,  0,  556.500,  0.00000,  0.13300,  0.00000,  0.00000,  1.00000,  1,  100.0,  463.750,  139.130
5303,  '1',  268.980,  52.987,  236.050,  -51.480,  1.04000,  0,  556.500,  0.00000,  0.17920,  0.00000,  0.00000,  1.00000,  1,  100.0,  463.750,  139.130
5319,  '1',  78.840,  -29.170,  133.770,  -29.170,  1.01000,  0,  315.360,  0.00000,  0.25070,  0.00000,  0.00000,  1.00000,  1,  100.0,  262.800,  78.840
5320,  '1',  78.840,  -29.170,  133.770,  -29.170,  1.01000,  0,  315.360,  0.00000,  0.28140,  0.00000,  0.00000,  1.00000,  1,  100.0,  262.800,  78.840
5321,  '1',  78.840,  -29.170,  133.770,  -29.170,  1.01000,  0,  315.360,  0.00000,  0.12810,  0.00000,  0.00000,  1.00000,  1,  100.0,  262.800,  78.840
5324,  '1',  244.300,  41.107,  144.590,  -31.530,  1.04000,  0,  340.880,  0.00000,  0.21670,  0.00000,  0.00000,  1.00000,  1,  100.0,  284.070,  85.220
5325,  '1',  244.300,  42.877,  144.590,  -31.530,  1.04000,  0,  340.880,  0.00000,  0.15030,  0.00000,  0.00000,  1.00000,  1,  100.0,  284.070,  85.220
5326,  '1',  244.300,  112.819,  144.590,  -31.530,  1.04000,  0,  340.880,  0.00000,  0.18810,  0.00000,  0.00000,  1.00000,  1,  100.0,  284.070,  85.220
5360,  '1',  310.817,  -131.575,  469.730,  -122.980,  1.01000,  0,  1209.60,  0.00000,  0.25510,  0.00000,  0.00000,  1.00000,  1,  100.0,  1008.00,  302.400
5364,  '1',  153.600,  -23.680,  108.590,  -23.680,  1.00000,  0,  256.000,  0.00000,  0.13030,  0.00000,  0.00000,  1.00000,  1,  100.0,  213.330,  64.000
5365,  '1',  153.600,  -23.680,  108.590,  -23.680,  1.00000,  0,  256.000,  0.00000,  0.11650,  0.00000,  0.00000,  1.00000,  1,  100.0,  213.330,  64.000
5366,  '1',  153.600,  -23.680,  108.590,  -23.680,  1.00000,  0,  256.000,  0.00000,  0.15490,  0.00000,  0.00000,  1.00000,  1,  100.0,  213.330,  64.000
5367,  '1',  153.600,  -23.680,  108.590,  -23.680,  1.00000,  0,  256.000,  0.00000,  0.10020,  0.00000,  0.00000,  1.00000,  1,  100.0,  213.330,  64.000
5368,  '1',  153.600,  -23.680,  108.590,  -23.680,  1.00000,  0,  256.000,  0.00000,  0.36180,  0.00000,  0.00000,  1.00000,  1,  100.0,  213.330,  64.000
5369,  '1',  153.600,  -23.680,  108.590,  -23.680,  1.00000,  0,  256.000,  0.00000,  0.24440,  0.00000,  0.00000,  1.00000,  1,  100.0,  213.330,  64.000
5382,  '1',  150.480,  71.715,  106.380,  -23.200,  1.04000,  0,  250.800,  0.00000,  0.24770,  0.00000,  0.00000,  1.00000,  1,  100.0,  209.000,  62.700
5383,  '1',  150.480,  63.159,  106.380,  -23.200,  1.04000,  0,  250.800,  0.00000,  0.39820,  0.00000,  0.00000,  1.00000,  1,  100.0,  209.000,  62.700
5415,  '1',  70.760,  -13.540,  62.100,  -13.540,  1.00000,  0,  146.400,  0.00000,  0.14030,  0.00000,  0.00000,  1.00000,  1,  100.0,  122.000,  36.600
5416,  '1',  70.760,  -13.540,  62.100,  -13.540,  1.00000,  0,  146.400,  0.00000,  0.26480,  0.00000,  0.00000,  1.00000,  1,  100.0,  122.000,  36.600
5417,  '1',  70.760,  -13.540,  62.100,  -13.540,  1.00000,  0,  146.400,  0.00000,  0.16960,  0.00000,  0.00000,  1.00000,  1,  100.0,  122.000,  36.600
5418,  '1',  35.640,  -13.190,  60.470,  -13.190,  1.00000,  0,  142.560,  0.00000,  0.34000,  0.00000,  0.00000,  1.00000,  1,  100.0,  118.800,  35.640
5419,  '1',  35.640,  -13.190,  60.470,  -13.190,  1.00000,  0,  142.560,  0.00000,  0.16420,  0.00000,  0.00000,  1.00000,  1,  100.0,  118.800,  35.640
5423,  '1',  0.000,  -1.380,  6.310,  -1.380,  1.00000,  0,  14.880,  0.00000,  0.12320,  0.00000,  0.00000,  1.00000,  0,  100.0,  12.400,  3.720
5424,  '1',  0.000,  0.000,  1.630,  -0.360,  1.00000,  0,  3.840,  0.00000,  0.18820,  0.00000,  0.00000,  1.00000,  0,  100.0,  3.200,  0.960
5444,  '1',  604.980,  -223.840,  1026.440,  -223.840,  1.01000,  0,  2419.92,  0.00000,  0.34260,  0.00000,  0.00000,  1.00000,  1,  100.0,  2016.60,  604.980
6006,  '1',  123.540,  11.197,  108.420,  -23.640,  1.04000,  0,  255.600,  0.00000,  0.18770,  0.00000,  0.00000,  1.00000,  1,  100.0,  213.000,  63.900
6007,  '1',  366.360,  19.177,  216.830,  -47.290,  1.04000,  0,  511.200,  0.00000,  0.13420,  0.00000,  0.00000,  1.00000,  1,  100.0,  426.000,  127.800
6008,  '1',  115.030,  10.286,  100.950,  -22.010,  1.04000,  0,  238.000,  0.00000,  0.20160,  0.00000,  0.00000,  1.00000,  1,  100.0,  198.330,  59.500
6009,  '1',  115.030,  6.433,  100.950,  -22.010,  1.04000,  0,  238.000,  0.00000,  0.18430,  0.00000,  0.00000,  1.00000,  1,  100.0,  198.330,  59.500
6010,  '1',  115.030,  8.076,  100.950,  -22.010,  1.04000,  0,  238.000,  0.00000,  0.15620,  0.00000,  0.00000,  1.00000,  1,  100.0,  198.330,  59.500
6069,  '1',  105.190,  -9.099,  92.320,  -20.130,  1.03000,  0,  217.640,  0.00000,  0.22480,  0.00000,  0.00000,  1.00000,  1,  100.0,  181.370,  54.410
6070,  '1',  105.190,  -3.233,  92.320,  -20.130,  1.03000,  0,  217.640,  0.00000,  0.24660,  0.00000,  0.00000,  1.00000,  1,  100.0,  181.370,  54.410
6071,  '1',  105.190,  -10.678,  92.320,  -20.130,  1.03000,  0,  217.640,  0.00000,  0.15280,  0.00000,  0.00000,  1.00000,  1,  100.0,  181.370,  54.410
6072,  '1',  105.190,  -3.760,  92.320,  -20.130,  1.03000,  0,  217.640,  0.00000,  0.19250,  0.00000,  0.00000,  1.00000,  1,  100.0,  181.370,  54.410
6073,  '1',  105.190,  -6.673,  92.320,  -20.130,  1.03000,  0,  217.640,  0.00000,  0.14260,  0.00000,  0.00000,  1.00000,  1,  100.0,  181.370,  54.410
6074,  '1',  105.190,  -7.401,  92.320,  -20.130,  1.03000,  0,  217.640,  0.00000,  0.11150,  0.00000,  0.00000,  1.00000,  1,  100.0,  181.370,  54.410
6078,  '1',  169.000,  -68.730,  262.510,  -68.730,  1.00000,  0,  676.000,  0.00000,  0.28900,  0.00000,  0.00000,  1.00000,  1,  100.0,  563.330,  169.000
6079,  '1',  169.000,  -68.730,  262.510,  -68.730,  1.00000,  0,  676.000,  0.00000,  0.25330,  0.00000,  0.00000,  1.00000,  1,  100.0,  563.330,  169.000
6080,  '1',  169.000,  -68.730,  262.510,  -68.730,  1.00000,  0,  676.000,  0.00000,  0.32510,  0.00000,  0.00000,  1.00000,  1,  100.0,  563.330,  169.000
6106,  '1',  36.300,  61.590,  61.590,  -13.430,  1.04000,  0,  145.200,  0.00000,  0.12010,  0.00000,  0.00000,  1.00000,  1,  100.0,  121.000,  36.300
6110,  '1',  177.180,  27.031,  275.220,  -72.050,  1.04000,  0,  708.720,  0.00000,  0.16800,  0.00000,  0.00000,  1.00000,  1,  100.0,  590.600,  177.180
6111,  '1',  198.450,  27.542,  308.260,  -80.700,  1.04000,  0,  793.800,  0.00000,  0.21900,  0.00000,  0.00000,  1.00000,  1,  100.0,  661.500,  198.450
6145,  '1',  383.560,  3.278,  227.010,  -49.510,  1.03000,  0,  535.200,  0.00000,  0.14770,  0.00000,  0.00000,  1.00000,  1,  100.0,  446.000,  133.800
6146,  '1',  383.560,  3.138,  227.010,  -49.510,  1.03000,  0,  535.200,  0.00000,  0.11950,  0.00000,  0.00000,  1.00000,  1,  100.0,  446.000,  133.800
6147,  '1',  222.614,  -3.486,  474.390,  -103.450,  1.03000,  0,  1118.40,  0.00000,  0.10440,  0.00000,  0.00000,  1.00000,  1,  100.0,  932.000,  279.600
6148,  '1',  216.600,  -7.579,  367.500,  -80.140,  1.03000,  0,  866.400,  0.00000,  0.23830,  0.00000,  0.00000,  1.00000,  1,  100.0,  722.000,  216.600
6149,  '1',  216.600,  -13.358,  367.500,  -80.140,  1.03000,  0,  866.400,  0.00000,  0.12770,  0.00000,  0.00000,  1.00000,  1,  100.0,  722.000,  216.600
6164,  '1',  169.240,  2.757,  119.640,  -26.090,  1.03000,  0,  282.060,  0.00000,  0.30070,  0.00000,  0.00000,  1.00000,  1,  100.0,  235.050,  70.520
6165,  '1',  169.240,  1.856,  119.640,  -26.090,  1.03000,  0,  282.060,  0.00000,  0.18390,  0.00000,  0.00000,  1.00000,  1,  100.0,  235.050,  70.520
6166,  '1',  169.240,  4.571,  119.640,  -26.090,  1.03000,  0,  282.060,  0.00000,  0.25100,  0.00000,  0.00000,  1.00000,  1,  100.0,  235.050,  70.520
6167,  '1',  169.240,  2.786,  119.640,  -26.090,  1.03000,  0,  282.060,  0.00000,  0.13970,  0.00000,  0.00000,  1.00000,  1,  100.0,  235.050,  70.520
6243,  '1',  131.760,  29.818,  93.150,  -20.310,  1.04000,  0,  219.600,  0.00000,  0.28800,  0.00000,  0.00000,  1.00000,  1,  100.0,  183.000,  54.900
6244,  '1',  256.280,  36.544,  151.680,  -33.080,  1.04000,  0,  357.600,  0.00000,  0.12500,  0.00000,  0.00000,  1.00000,  1,  100.0,  298.000,  89.400
6245,  '1',  256.280,  42.130,  151.680,  -33.080,  1.04000,  0,  357.600,  0.00000,  0.24960,  0.00000,  0.00000,  1.00000,  1,  100.0,  298.000,  89.400
6246,  '1',  256.280,  79.519,  151.680,  -33.080,  1.04000,  0,  357.600,  0.00000,  0.16990,  0.00000,  0.00000,  1.00000,  1,  100.0,  298.000,  89.400
6247,  '1',  132.000,  65.259,  93.320,  -20.350,  1.04000,  0,  220.000,  0.00000,  0.11730,  0.00000,  0.00000,  1.00000,  1,  100.0,  183.330,  55.000
6248,  '1',  132.000,  33.114,  93.320,  -20.350,  1.04000,  0,  220.000,  0.00000,  0.27550,  0.00000,  0.00000,  1.00000,  1,  100.0,  183.330,  55.000
6249,  '1',  132.000,  22.488,  93.320,  -20.350,  1.04000,  0,  220.000,  0.00000,  0.17480,  0.00000,  0.00000,  1.00000,  1,  100.0,  183.330,  55.000
6257,  '1',  112.520,  -21.530,  98.750,  -21.530,  1.02000,  0,  232.800,  0.00000,  0.15520,  0.00000,  0.00000,  1.00000,  1,  100.0,  194.000,  58.200
6258,  '1',  112.520,  -21.530,  98.750,  -21.530,  1.02000,  0,  232.800,  0.00000,  0.26310,  0.00000,  0.00000,  1.00000,  1,  100.0,  194.000,  58.200
6260,  '1',  185.040,  -28.530,  130.810,  -28.530,  1.02000,  0,  308.400,  0.00000,  0.11970,  0.00000,  0.00000,  1.00000,  1,  100.0,  257.000,  77.100
6295,  '1',  119.610,  -22.890,  104.970,  -22.890,  1.02000,  0,  247.480,  0.00000,  0.21970,  0.00000,  0.00000,  1.00000,  1,  100.0,  206.230,  61.870
6296,  '1',  119.610,  -22.890,  104.970,  -22.890,  1.02000,  0,  247.480,  0.00000,  0.25670,  0.00000,  0.00000,  1.00000,  1,  100.0,  206.230,  61.870
6297,  '1',  119.630,  -22.890,  104.970,  -22.890,  1.02000,  0,  247.480,  0.00000,  0.14170,  0.00000,  0.00000,  1.00000,  1,  100.0,  206.230,  61.900
6302,  '1',  178.020,  -27.440,  125.850,  -27.440,  1.00000,  0,  296.700,  0.00000,  0.25960,  0.00000,  0.00000,  1.00000,  1,  100.0,  247.250,  74.180
6303,  '1',  178.020,  -27.440,  125.850,  -27.440,  1.00000,  0,  296.700,  0.00000,  0.27270,  0.00000,  0.00000,  1.00000,  1,  100.0,  247.250,  74.180
6304,  '1',  178.020,  -27.440,  125.850,  -27.440,  1.00000,  0,  296.700,  0.00000,  0.11710,  0.00000,  0.00000,  1.00000,  1,  100.0,  247.250,  74.180
6305,  '1',  178.020,  -27.440,  125.850,  -27.440,  1.00000,  0,  296.700,  0.00000,  0.12770,  0.00000,  0.00000,  1.00000,  1,  100.0,  247.250,  74.180
6349,  '1',  522.720,  191.049,  369.540,  -80.580,  1.04000,  0,  871.200,  0.00000,  0.16290,  0.00000,  0.00000,  1.00000,  1,  100.0,  726.000,  217.800
7005,  '1',  117.360,  18.056,  82.970,  -18.090,  1.04000,  0,  195.600,  0.00000,  0.13000,  0.00000,  0.00000,  1.00000,  1,  100.0,  163.000,  48.900
7006,  '1',  117.360,  32.280,  82.970,  -18.090,  1.04000,  0,  195.600,  0.00000,  0.19150,  0.00000,  0.00000,  1.00000,  1,  100.0,  163.000,  48.900
7007,  '1',  117.360,  20.976,  82.970,  -18.090,  1.04000,  0,  195.600,  0.00000,  0.34300,  0.00000,  0.00000,  1.00000,  1,  100.0,  163.000,  48.900
7008,  '1',  117.360,  19.505,  82.970,  -18.090,  1.04000,  0,  195.600,  0.00000,  0.21570,  0.00000,  0.00000,  1.00000,  1,  100.0,  163.000,  48.900
7009,  '1',  117.360,  17.643,  82.970,  -18.090,  1.04000,  0,  195.600,  0.00000,  0.13060,  0.00000,  0.00000,  1.00000,  1,  100.0,  163.000,  48.900
7045,  '1',  109.300,  84.976,  95.920,  -20.920,  1.03000,  0,  226.140,  0.00000,  0.12400,  0.00000,  0.00000,  1.00000,  1,  100.0,  188.450,  56.530
7046,  '1',  109.300,  95.920,  95.920,  -20.920,  1.03000,  0,  226.140,  0.00000,  0.10650,  0.00000,  0.00000,  1.00000,  1,  100.0,  188.450,  56.530
7061,  '1',  34.470,  3.894,  58.480,  -12.750,  1.00000,  0,  137.880,  0.00000,  0.12410,  0.00000,  0.00000,  1.00000,  1,  100.0,  114.900,  34.470
7062,  '1',  34.470,  4.241,  58.480,  -12.750,  1.00000,  0,  137.880,  0.00000,  0.19500,  0.00000,  0.00000,  1.00000,  1,  100.0,  114.900,  34.470
7063,  '1',  34.470,  3.810,  58.480,  -12.750,  1.00000,  0,  137.880,  0.00000,  0.15790,  0.00000,  0.00000,  1.00000,  1,  100.0,  114.900,  34.470
7064,  '1',  34.470,  5.313,  58.480,  -12.750,  1.00000,  0,  137.880,  0.00000,  0.22800,  0.00000,  0.00000,  1.00000,  1,  100.0,  114.900,  34.470
7065,  '1',  34.470,  4.607,  58.480,  -12.750,  1.00000,  0,  137.880,  0.00000,  0.22800,  0.00000,  0.00000,  1.00000,  1,  100.0,  114.900,  34.470
7066,  '1',  34.470,  4.323,  58.480,  -12.750,  1.00000,  0,  137.880,  0.00000,  0.34800,  0.00000,  0.00000,  1.00000,  1,  100.0,  114.900,  34.470
7079,  '1',  164.630,  14.281,  116.380,  -25.380,  1.04000,  0,  274.380,  0.00000,  0.13630,  0.00000,  0.00000,  1.00000,  1,  100.0,  228.650,  68.590
7080,  '1',  164.630,  11.200,  116.380,  -25.380,  1.04000,  0,  274.380,  0.00000,  0.17160,  0.00000,  0.00000,  1.00000,  1,  100.0,  228.650,  68.590
7081,  '1',  164.630,  11.682,  116.380,  -25.380,  1.04000,  0,  274.380,  0.00000,  0.24350,  0.00000,  0.00000,  1.00000,  1,  100.0,  228.650,  68.590
7082,  '1',  164.630,  13.642,  116.380,  -25.380,  1.04000,  0,  274.380,  0.00000,  0.26430,  0.00000,  0.00000,  1.00000,  1,  100.0,  228.650,  68.590
7098,  '1',  2396.647,  1127.414,  498.380,  -111.050,  1.00000,  0,  3600.00,  0.00000,  0.28190,  0.00000,  0.00000,  1.00000,  1,  100.0,  1354.30,  406.290
7099,  '1',  1354.300,  358.573,  498.380,  -111.050,  1.00000,  0,  1625.16,  0.00000,  0.27430,  0.00000,  0.00000,  1.00000,  1,  100.0,  1354.30,  406.290
7107,  '1',  100.337,  42.696,  76.350,  -16.650,  1.04000,  0,  180.000,  0.00000,  0.29250,  0.00000,  0.00000,  1.00000,  1,  100.0,  150.000,  45.000
7110,  '1',  141.120,  23.807,  99.760,  -21.760,  1.04000,  0,  235.200,  0.00000,  0.13730,  0.00000,  0.00000,  1.00000,  1,  100.0,  196.000,  58.800
7111,  '1',  141.120,  23.169,  99.760,  -21.760,  1.04000,  0,  235.200,  0.00000,  0.19180,  0.00000,  0.00000,  1.00000,  1,  100.0,  196.000,  58.800
7112,  '1',  141.120,  36.894,  99.760,  -21.760,  1.04000,  0,  235.200,  0.00000,  0.17280,  0.00000,  0.00000,  1.00000,  1,  100.0,  196.000,  58.800
7113,  '1',  141.120,  19.697,  99.760,  -21.760,  1.04000,  0,  235.200,  0.00000,  0.16060,  0.00000,  0.00000,  1.00000,  1,  100.0,  196.000,  58.800
7114,  '1',  141.120,  39.077,  99.760,  -21.760,  1.04000,  0,  235.200,  0.00000,  0.20370,  0.00000,  0.00000,  1.00000,  1,  100.0,  196.000,  58.800
7115,  '1',  141.120,  39.334,  99.760,  -21.760,  1.04000,  0,  235.200,  0.00000,  0.17540,  0.00000,  0.00000,  1.00000,  1,  100.0,  196.000,  58.800
7134,  '1',  148.720,  -22.930,  105.130,  -22.930,  1.00000,  0,  247.860,  0.00000,  0.12450,  0.00000,  0.00000,  1.00000,  1,  100.0,  206.550,  61.970
7135,  '1',  148.720,  -22.930,  105.130,  -22.930,  1.00000,  0,  247.860,  0.00000,  0.10080,  0.00000,  0.00000,  1.00000,  1,  100.0,  206.550,  61.970
7136,  '1',  148.720,  -22.930,  105.130,  -22.930,  1.00000,  0,  247.860,  0.00000,  0.12110,  0.00000,  0.00000,  1.00000,  1,  100.0,  206.550,  61.970
7137,  '1',  148.720,  -22.930,  105.130,  -22.930,  1.00000,  0,  247.860,  0.00000,  0.35250,  0.00000,  0.00000,  1.00000,  1,  100.0,  206.550,  61.970
7138,  '1',  380.700,  -42.260,  193.780,  -42.260,  1.00000,  0,  456.840,  0.00000,  0.12060,  0.00000,  0.00000,  1.00000,  1,  100.0,  380.700,  114.210
7162,  '1',  64.150,  44.148,  56.300,  -12.280,  1.04000,  0,  132.720,  0.00000,  0.21300,  0.00000,  0.00000,  1.00000,  1,  100.0,  110.600,  33.180
7163,  '1',  64.150,  28.400,  56.300,  -12.280,  1.04000,  0,  132.720,  0.00000,  0.10860,  0.00000,  0.00000,  1.00000,  1,  100.0,  110.600,  33.180
7164,  '1',  64.150,  39.481,  56.300,  -12.280,  1.04000,  0,  132.720,  0.00000,  0.20360,  0.00000,  0.00000,  1.00000,  1,  100.0,  110.600,  33.180
7165,  '1',  64.150,  43.784,  56.300,  -12.280,  1.04000,  0,  132.720,  0.00000,  0.39190,  0.00000,  0.00000,  1.00000,  1,  100.0,  110.600,  33.180
7166,  '1',  64.150,  24.243,  56.300,  -12.280,  1.04000,  0,  132.720,  0.00000,  0.12630,  0.00000,  0.00000,  1.00000,  1,  100.0,  110.600,  33.180
7167,  '1',  64.160,  20.046,  56.300,  -12.280,  1.04000,  0,  132.720,  0.00000,  0.10500,  0.00000,  0.00000,  1.00000,  1,  100.0,  110.600,  33.200
7170,  '1',  350.870,  60.293,  178.590,  -38.950,  1.04000,  0,  421.040,  0.00000,  0.12310,  0.00000,  0.00000,  1.00000,  1,  100.0,  350.870,  105.260
7194,  '1',  166.280,  27.337,  117.550,  -25.640,  1.03000,  0,  277.140,  0.00000,  0.16070,  0.00000,  0.00000,  1.00000,  1,  100.0,  230.950,  69.280
7195,  '1',  166.280,  23.311,  117.550,  -25.640,  1.03000,  0,  277.140,  0.00000,  0.11620,  0.00000,  0.00000,  1.00000,  1,  100.0,  230.950,  69.280
7196,  '1',  166.280,  43.168,  117.550,  -25.640,  1.03000,  0,  277.140,  0.00000,  0.13190,  0.00000,  0.00000,  1.00000,  1,  100.0,  230.950,  69.280
7197,  '1',  166.280,  67.433,  117.550,  -25.640,  1.03000,  0,  277.140,  0.00000,  0.20530,  0.00000,  0.00000,  1.00000,  1,  100.0,  230.950,  69.280
7208,  '1',  229.500,  28.528,  389.390,  -84.920,  1.04000,  0,  918.000,  0.00000,  0.32860,  0.00000,  0.00000,  1.00000,  1,  100.0,  765.000,  229.500
7209,  '1',  229.500,  41.667,  389.390,  -84.920,  1.04000,  0,  918.000,  0.00000,  0.31020,  0.00000,  0.00000,  1.00000,  1,  100.0,  765.000,  229.500
7210,  '1',  128.520,  11.358,  90.860,  -19.810,  1.04000,  0,  214.200,  0.00000,  0.12360,  0.00000,  0.00000,  1.00000,  1,  100.0,  178.500,  53.550
7211,  '1',  128.520,  16.475,  90.860,  -19.810,  1.04000,  0,  214.200,  0.00000,  0.25410,  0.00000,  0.00000,  1.00000,  1,  100.0,  178.500,  53.550
...
 0 /End of Generator data, Begin Branch data
1048,  1049,  '99',  0.00246,  0.33340,  0.00000,  0.00,  0.00,  0.00,  0.00000,  0.000,  0.00000,  0.00000,  0.00000,  0.00000,  1
1048,  1053,  '99',  0.00251,  0.24923,  0.00000,  0.00,  0.00,  0.00,  0.00000,  0.000,  0.00000,  0.00000,  0.00000,  0.00000,  1
1048,  1072,  '99',  0.78053,  4.15153,  0.00000,  0.00,  0.00,  0.00,  0.00000,  0.000,  0.00000,  0.00000,  0.00000,  0.00000,  1
1048,  1075,  '99',  0.79059,  4.85386,  0.00000,  0.00,  0.00,  0.00,  0.00000,  0.000,  0.00000,  0.00000,  0.00000,  0.00000,  1
1048,  1076,  '99',  0.37020,  2.40696,  0.00000,  0.00,  0.00,  0.00,  0.00000,  0.000,  0.00000,  0.00000,  0.00000,  0.00000,  1
1048,  1081,  '99',  0.16751,  1.02769,  0.00000,  0.00,  0.00,  0.00,  0.00000,  0.000,  0.00000,  0.00000,  0.00000,  0.00000,  1
1049,  1053,  '99',  -0.00777,  0.44608,  0.00000,  0.00,  0.00,  0.00,  0.00000,  0.000,  0.00000,  0.00000,  0.00000,  0.00000,  1
1049,  1076,  '99',  0.54402,  4.32500,  0.00000,  0.00,  0.00,  0.00,  0.00000,  0.000,  0.00000,  0.00000,  0.00000,  0.00000,  1
1049,  1081,  '99',  0.24918,  1.84710,  0.00000,  0.00,  0.00,  0.00,  0.00000,  0.000,  0.00000,  0.00000,  0.00000,  0.00000,  1
1053,  1076,  '99',  0.41538,  3.23213,  0.00000,  0.00,  0.00,  0.00,  0.00000,  0.000,  0.00000,  0.00000,  0.00000,  0.00000,  1
1053,  1081,  '99',  0.00296,  0.02936,  0.00000,  0.00,  0.00,  0.00,  0.00000,  0.000,  0.00000,  0.00000,  0.00000,  0.00000,  1
1072,  1073,  '99',  0.12885,  1.19696,  0.00000,  0.00,  0.00,  0.00,  0.00000,  0.000,  0.00000,  0.00000,  0.00000,  0.00000,  1
1072,  1074,  '99',  0.06167,  1.14706,  0.00000,  0.00,  0.00,  0.00,  0.00000,  0.000,  0.00000,  0.00000,  0.00000,  0.00000,  1
1072,  1075,  '99',  0.04132,  0.91814,  0.00000,  0.00,  0.00,  0.00,  0.00000,  0.000,  0.00000,  0.00000,  0.00000,  0.00000,  1
1072,  1076,  '99',  0.01644,  0.45481,  0.00000,  0.00,  0.00,  0.00,  0.00000,  0.000,  0.00000,  0.00000,  0.00000,  0.00000,  1
1072,  1077,  '99',  0.06747,  1.10961,  0.00000,  0.00,  0.00,  0.00,  0.00000,  0.000,  0.00000,  0.00000,  0.00000,  0.00000,  1
1072,  1081,  '99',  0.02393,  0.54152,  0.00000,  0.00,  0.00,  0.00,  0.00000,  0.000,  0.00000,  0.00000,  0.00000,  0.00000,  1
1072,  5236,  '99',  0.14310,  2.41767,  0.00000,  0.00,  0.00,  0.00,  0.00000,  0.000,  0.00000,  0.00000,  0.00000,  0.00000,  1
1072,  5260,  '99',  0.07369,  1.54679,  0.00000,  0.00,  0.00,  0.00,  0.00000,  0.000,  0.00000,  0.00000,  0.00000,  0.00000,  1
1072,  5413,  '99',  0.08028,  1.72794,  0.00000,  0.00,  0.00,  0.00,  0.00000,  0.000,  0.00000,  0.00000,  0.00000,  0.00000,  1
1073,  1074,  '99',  0.16023,  1.74441,  0.00000,  0.00,  0.00,  0.00,  0.00000,  0.000,  0.00000,  0.00000,  0.00000,  0.00000,  1
1073,  1075,  '99',  0.11600,  1.39673,  0.00000,  0.00,  0.00,  0.00,  0.00000,  0.000,  0.00000,  0.00000,  0.00000,  0.00000,  1
1073,  1076,  '99',  0.05131,  0.69213,  0.00000,  0.00,  0.00,  0.00,  0.00000,  0.000,  0.00000,  0.00000,  0.00000,  0.00000,  1
1073,  1077,  '99',  0.16690,  1.68699,  0.00000,  0.00,  0.00,  0.00,  0.00000,  0.000,  0.00000,  0.00000,  0.00000,  0.00000,  1
1073,  1081,  '99',  0.06774,  0.82382,  0.00000,  0.00,  0.00,  0.00,  0.00000,  0.000,  0.00000,  0.00000,  0.00000,  0.00000,  1
1073,  5236,  '99',  0.35770,  3.67593,  0.00000,  0.00,  0.00,  0.00,  0.00000,  0.000,  0.00000,  0.00000,  0.00000,  0.00000,  1
1073,  5260,  '99',  0.20163,  2.35285,  0.00000,  0.00,  0.00,  0.00,  0.00000,  0.000,  0.00000,  0.00000,  0.00000,  0.00000,  1
1073,  5413,  '99',  0.22214,  2.62851,  0.00000,  0.00,  0.00,  0.00,  0.00000,  0.000,  0.00000,  0.00000,  0.00000,  0.00000,  1
1074,  1075,  '99',  0.03922,  1.33675,  0.00000,  0.00,  0.00,  0.00,  0.00000,  0.000,  0.00000,  0.00000,  0.00000,  0.00000,  1
1074,  1076,  '99',  0.01356,  0.66209,  0.00000,  0.00,  0.00,  0.00,  0.00000,  0.000,  0.00000,  0.00000,  0.00000,  0.00000,  1
1074,  1077,  '99',  0.07290,  1.61592,  0.00000,  0.00,  0.00,  0.00,  0.00000,  0.000,  0.00000,  0.00000,  0.00000,  0.00000,  1
1074,  1081,  '99',  0.02249,  0.78841,  0.00000,  0.00,  0.00,  0.00,  0.00000,  0.000,  0.00000,  0.00000,  0.00000,  0.00000,  1
1074,  5236,  '99',  0.15317,  3.52075,  0.00000,  0.00,  0.00,  0.00,  0.00000,  0.000,  0.00000,  0.00000,  0.00000,  0.00000,  1
1074,  5260,  '99',  0.07201,  2.25213,  0.00000,  0.00,  0.00,  0.00,  0.00000,  0.000,  0.00000,  0.00000,  0.00000,  0.00000,  1
1074,  5413,  '99',  0.07747,  2.51583,  0.00000,  0.00,  0.00,  0.00,  0.00000,  0.000,  0.00000,  0.00000,  0.00000,  0.00000,  1
1075,  1076,  '99',  0.00622,  0.52980,  0.00000,  0.00,  0.00,  0.00,  0.00000,  0.000,  0.00000,  0.00000,  0.00000,  0.00000,  1
1075,  1077,  '99',  0.04703,  1.29332,  0.00000,  0.00,  0.00,  0.00,  0.00000,  0.000,  0.00000,  0.00000,  0.00000,  0.00000,  1
1075,  1081,  '99',  0.01248,  0.63092,  0.00000,  0.00,  0.00,  0.00,  0.00000,  0.000,  0.00000,  0.00000,  0.00000,  0.00000,  1
1075,  5236,  '99',  0.09794,  2.81784,  0.00000,  0.00,  0.00,  0.00,  0.00000,  0.000,  0.00000,  0.00000,  0.00000,  0.00000,  1
1075,  5260,  '99',  0.04187,  1.80231,  0.00000,  0.00,  0.00,  0.00,  0.00000,  0.000,  0.00000,  0.00000,  0.00000,  0.00000,  1
1075,  5413,  '99',  0.04440,  2.01332,  0.00000,  0.00,  0.00,  0.00,  0.00000,  0.000,  0.00000,  0.00000,  0.00000,  0.00000,  1
1076,  1077,  '99',  0.01762,  0.64062,  0.00000,  0.00,  0.00,  0.00,  0.00000,  0.000,  0.00000,  0.00000,  0.00000,  0.00000,  1
1076,  1081,  '99',  0.00341,  0.31247,  0.00000,  0.00,  0.00,  0.00,  0.00000,  0.000,  0.00000,  0.00000,  0.00000,  0.00000,  1
1076,  3045,  '99',  0.03487,  3.50914,  0.00000,  0.00,  0.00,  0.00,  0.00000,  0.000,  0.00000,  0.00000,  0.00000,  0.00000,  1
1076,  5236,  '99',  0.03614,  1.39574,  0.00000,  0.00,  0.00,  0.00,  0.00000,  0.000,  0.00000,  0.00000,  0.00000,  0.00000,  1
1076,  5260,  '99',  0.01283,  0.89263,  0.00000,  0.00,  0.00,  0.00,  0.00000,  0.000,  0.00000,  0.00000,  0.00000,  0.00000,  1
1076,  5413,  '99',  0.01316,  0.99713,  0.00000,  0.00,  0.00,  0.00,  0.00000,  0.000,  0.00000,  0.00000,  0.00000,  0.00000,  1
1077,  1081,  '99',  0.02711,  0.76280,  0.00000,  0.00,  0.00,  0.00,  0.00000,  0.000,  0.00000,  0.00000,  0.00000,  0.00000,  1
1077,  5236,  '99',  0.17213,  3.40603,  0.00000,  0.00,  0.00,  0.00,  0.00000,  0.000,  0.00000,  0.00000,  0.00000,  0.00000,  1
1077,  5260,  '99',  0.08497,  2.17892,  0.00000,  0.00,  0.00,  0.00,  0.00000,  0.000,  0.00000,  0.00000,  0.00000,  0.00000,  1
1077,  5413,  '99',  0.09205,  2.43407,  0.00000,  0.00,  0.00,  0.00,  0.00000,  0.000,  0.00000,  0.00000,  0.00000,  0.00000,  1
1081,  2127,  '99',  0.22907,  1.68542,  0.00000,  0.00,  0.00,  0.00,  0.00000,  0.000,  0.00000,  0.00000,  0.00000,  0.00000,  1
1081,  3045,  '99',  0.01616,  0.44382,  0.00000,  0.00,  0.00,  0.00,  0.00000,  0.000,  0.00000,  0.00000,  0.00000,  0.00000,  1
1081,  4026,  '99',  0.16137,  3.84628,  0.00000,  0.00,  0.00,  0.00,  0.00000,  0.000,  0.00000,  0.00000,  0.00000,  0.00000,  1
1081,  4115,  '99',  0.10442,  2.67012,  0.00000,  0.00,  0.00,  0.00,  0.00000,  0.000,  0.00000,  0.00000,  0.00000,  0.00000,  1
1081,  4116,  '99',  0.13740,  2.80837,  0.00000,  0.00,  0.00,  0.00,  0.00000,  0.000,  0.00000,  0.00000,  0.00000,  0.00000,  1
1081,  5236,  '99',  0.02920,  0.35930,  0.00000,  0.00,  0.00,  0.00,  0.00000,  0.000,  0.00000,  0.00000,  0.00000,  0.00000,  1
1081,  5260,  '99',  0.02852,  0.36770,  0.00000,  0.00,  0.00,  0.00,  0.00000,  0.000,  0.00000,  0.00000,  0.00000,  0.00000,  1
1081,  5413,  '99',  0.03122,  0.40519,  0.00000,  0.00,  0.00,  0.00,  0.00000,  0.000,  0.00000,  0.00000,  0.00000,  0.00000,  1
1081,  6349,  '99',  0.25016,  1.97233,  0.00000,  0.00,  0.00,  0.00,  0.00000,  0.000,  0.00000,  0.00000,  0.00000,  0.00000,  1
2001,  -2022,  '1',  0.00839,  0.03697,  0.01721,  187.00,  0.00,  0.00,  0.00000,  0.000,  0.00000,  0.00000,  0.00000,  0.00000,  1
2001,  -2027,  '1',  0.00955,  0.04062,  0.02032,  187.00,  0.00,  0.00,  0.00000,  0.000,  0.00000,  0.00000,  0.00000,  0.00000,  1
2001,  12001,  '1',  0.00000,  0.02620,  0.00000,  45.79,  0.00,  0.00,  1.00000,  -1.362,  0.00000,  0.00000,  0.00000,  0.00000,  1
2003,  2002,  '1',  0.00030,  0.01986,  0.00000,  981.00,  0.00,  0.00,  1.00000,  0.000,  0.00000,  0.00000,  0.00000,  0.00000,  1
2004,  2002,  '1',  0.00022,  0.01466,  0.00000,  635.00,  0.00,  0.00,  1.00000,  0.000,  0.00000,  0.00000,  0.00000,  0.00000,  1
2005,  2002,  '1',  0.00033,  0.01714,  0.00000,  645.00,  0.00,  0.00,  1.00000,  0.000,  0.00000,  0.00000,  0.00000,  0.00000,  1
2006,  2002,  '1',  0.00036,  0.02679,  0.00000,  636.00,  0.00,  0.00,  1.00000,  0.000,  0.00000,  0.00000,  0.00000,  0.00000,  1
2002,  -2021,  '1',  0.00097,  0.01175,  0.78032,  2295.00,  0.00,  0.00,  0.00000,  0.000,  0.00000,  0.00000,  0.00000,  0.00000,  1
2002,  2101,  '1',  0.00031,  0.00370,  0.24573,  2020.00,  0.00,  0.00,  0.00000,  0.000,  0.00000,  0.00000,  0.00000,  0.00000,  1
2003,  -2038,  '1',  0.00353,  0.02067,  0.01032,  251.00,  0.00,  0.00,  0.00000,  0.000,  0.00000,  0.00000,  0.00000,  0.00000,  1
2003,  2047,  '1',  0.00130,  0.00990,  0.00520,  310.00,  0.00,  0.00,  0.00000,  0.000,  0.00000,  0.00000,  0.00000,  0.00000,  1
2007,  2114,  '1',  0.00888,  0.05207,  0.02600,  251.00,  0.00,  0.00,  0.00000,  0.000,  0.00000,  0.00000,  0.00000,  0.00000,  1
2007,  2122,  '1',  0.00861,  0.03661,  0.01831,  187.00,  0.00,  0.00,  0.00000,  0.000,  0.00000,  0.00000,  0.00000,  0.00000,  1
2007,  12007,  '1',  0.00000,  0.12423,  0.00000,  9.66,  0.00,  0.00,  1.00000,  -1.351,  0.00000,  0.00000,  0.00000,  0.00000,  1
2009,  2049,  '1',  0.01224,  0.07176,  0.03583,  251.00,  0.00,  0.00,  0.00000,  0.000,  0.00000,  0.00000,  0.00000,  0.00000,  1
2009,  2082,  '1',  0.00735,  0.03126,  0.01563,  187.00,  0.00,  0.00,  0.00000,  0.000,  0.00000,  0.00000,  0.00000,  0.00000,  1
2009,  -2109,  '1',  0.00725,  0.03084,  0.01542,  250.00,  0.00,  0.00,  0.00000,  0.000,  0.00000,  0.00000,  0.00000,  0.00000,  1
...